*HEADING
Yu-2003 sec. 6.2 dynamics SOLID benchmark: [90/0] plate, corner mass
** C3D8I 24 x 24 x 8, mass+load at the mid-thickness corner node
** EL PRINT S is in the PLY LOCAL frame (ORIENTATION) -- post rotates
*NODE
1, 0.00000000, 0.00000000, 0.00000000
2, 0.00166667, 0.00000000, 0.00000000
3, 0.00333333, 0.00000000, 0.00000000
4, 0.00500000, 0.00000000, 0.00000000
5, 0.00666667, 0.00000000, 0.00000000
6, 0.00833333, 0.00000000, 0.00000000
7, 0.01000000, 0.00000000, 0.00000000
8, 0.01166667, 0.00000000, 0.00000000
9, 0.01333333, 0.00000000, 0.00000000
10, 0.01500000, 0.00000000, 0.00000000
11, 0.01666667, 0.00000000, 0.00000000
12, 0.01833333, 0.00000000, 0.00000000
13, 0.02000000, 0.00000000, 0.00000000
14, 0.02166667, 0.00000000, 0.00000000
15, 0.02333333, 0.00000000, 0.00000000
16, 0.02500000, 0.00000000, 0.00000000
17, 0.02666667, 0.00000000, 0.00000000
18, 0.02833333, 0.00000000, 0.00000000
19, 0.03000000, 0.00000000, 0.00000000
20, 0.03166667, 0.00000000, 0.00000000
** ... 5605 like lines cut
*ELEMENT, TYPE=C3D8I
1, 1, 2, 27, 26, 626, 627, 652, 651
2, 2, 3, 28, 27, 627, 628, 653, 652
3, 3, 4, 29, 28, 628, 629, 654, 653
4, 4, 5, 30, 29, 629, 630, 655, 654
5, 5, 6, 31, 30, 630, 631, 656, 655
6, 6, 7, 32, 31, 631, 632, 657, 656
7, 7, 8, 33, 32, 632, 633, 658, 657
8, 8, 9, 34, 33, 633, 634, 659, 658
9, 9, 10, 35, 34, 634, 635, 660, 659
10, 10, 11, 36, 35, 635, 636, 661, 660
11, 11, 12, 37, 36, 636, 637, 662, 661
12, 12, 13, 38, 37, 637, 638, 663, 662
13, 13, 14, 39, 38, 638, 639, 664, 663
14, 14, 15, 40, 39, 639, 640, 665, 664
15, 15, 16, 41, 40, 640, 641, 666, 665
16, 16, 17, 42, 41, 641, 642, 667, 666
17, 17, 18, 43, 42, 642, 643, 668, 667
18, 18, 19, 44, 43, 643, 644, 669, 668
19, 19, 20, 45, 44, 644, 645, 670, 669
20, 20, 21, 46, 45, 645, 646, 671, 670
** ... 4588 like lines cut
*ELSET, ELSET=PLY1, GENERATE
1, 2304, 1
*ELSET, ELSET=PLY2, GENERATE
2305, 4608, 1
*ELEMENT, TYPE=MASS, ELSET=CM
5608, 2501
*MASS, ELSET=CM
50,
*NSET, NSET=NM3D
2813
*NSET, NSET=NA3D
2501
*NSET, NSET=NBC3D
25, 50, 75, 100, 125, 150, 175, 200, 225, 250, 275, 300
325, 350, 375, 400, 425, 450, 475, 500, 525, 550, 575, 600
625, 650, 675, 700, 725, 750, 775, 800, 825, 850, 875, 900
925, 950, 975, 1000, 1025, 1050, 1075, 1100, 1125, 1150, 1175, 1200
1225, 1250, 1275, 1300, 1325, 1350, 1375, 1400, 1425, 1450, 1475, 1500
1525, 1550, 1575, 1600, 1625, 1650, 1675, 1700, 1725, 1750, 1775, 1800
1825, 1850, 1875, 1900, 1925, 1950, 1975, 2000, 2025, 2050, 2075, 2100
2125, 2150, 2175, 2200, 2225, 2250, 2275, 2300, 2325, 2350, 2375, 2400
2425, 2450, 2475, 2500, 2525, 2550, 2575, 2600, 2625, 2650, 2675, 2700
2725, 2750, 2775, 2800, 2825, 2850, 2875, 2900, 2925, 2950, 2975, 3000
3025, 3050, 3075, 3100, 3125, 3150, 3175, 3200, 3225, 3250, 3275, 3300
3325, 3350, 3375, 3400, 3425, 3450, 3475, 3500, 3525, 3550, 3575, 3600
3625, 3650, 3675, 3700, 3725, 3750, 3775, 3800, 3825, 3850, 3875, 3900
3925, 3950, 3975, 4000, 4025, 4050, 4075, 4100, 4125, 4150, 4175, 4200
4225, 4250, 4275, 4300, 4325, 4350, 4375, 4400, 4425, 4450, 4475, 4500
4525, 4550, 4575, 4600, 4625, 4650, 4675, 4700, 4725, 4750, 4775, 4800
4825, 4850, 4875, 4900, 4925, 4950, 4975, 5000, 5025, 5050, 5075, 5100
5125, 5150, 5175, 5200, 5225, 5250, 5275, 5300, 5325, 5350, 5375, 5400
5425, 5450, 5475, 5500, 5525, 5550, 5575, 5600, 5625
*NSET, NSET=NCD3D
601, 602, 603, 604, 605, 606, 607, 608, 609, 610, 611, 612
613, 614, 615, 616, 617, 618, 619, 620, 621, 622, 623, 624
625, 1226, 1227, 1228, 1229, 1230, 1231, 1232, 1233, 1234, 1235, 1236
1237, 1238, 1239, 1240, 1241, 1242, 1243, 1244, 1245, 1246, 1247, 1248
1249, 1250, 1851, 1852, 1853, 1854, 1855, 1856, 1857, 1858, 1859, 1860
1861, 1862, 1863, 1864, 1865, 1866, 1867, 1868, 1869, 1870, 1871, 1872
1873, 1874, 1875, 2476, 2477, 2478, 2479, 2480, 2481, 2482, 2483, 2484
2485, 2486, 2487, 2488, 2489, 2490, 2491, 2492, 2493, 2494, 2495, 2496
2497, 2498, 2499, 2500, 3101, 3102, 3103, 3104, 3105, 3106, 3107, 3108
3109, 3110, 3111, 3112, 3113, 3114, 3115, 3116, 3117, 3118, 3119, 3120
3121, 3122, 3123, 3124, 3125, 3726, 3727, 3728, 3729, 3730, 3731, 3732
3733, 3734, 3735, 3736, 3737, 3738, 3739, 3740, 3741, 3742, 3743, 3744
3745, 3746, 3747, 3748, 3749, 3750, 4351, 4352, 4353, 4354, 4355, 4356
4357, 4358, 4359, 4360, 4361, 4362, 4363, 4364, 4365, 4366, 4367, 4368
4369, 4370, 4371, 4372, 4373, 4374, 4375, 4976, 4977, 4978, 4979, 4980
4981, 4982, 4983, 4984, 4985, 4986, 4987, 4988, 4989, 4990, 4991, 4992
4993, 4994, 4995, 4996, 4997, 4998, 4999, 5000, 5601, 5602, 5603, 5604
5605, 5606, 5607, 5608, 5609, 5610, 5611, 5612, 5613, 5614, 5615, 5616
5617, 5618, 5619, 5620, 5621, 5622, 5623, 5624, 5625
*ELSET, ELSET=COLM3D
276, 277, 300, 301, 852, 853, 876, 877, 1428, 1429, 1452, 1453
2004, 2005, 2028, 2029, 2580, 2581, 2604, 2605, 3156, 3157, 3180, 3181
3732, 3733, 3756, 3757, 4308, 4309, 4332, 4333
*ELSET, ELSET=COLQ3D
414, 415, 438, 439, 990, 991, 1014, 1015, 1566, 1567, 1590, 1591
2142, 2143, 2166, 2167, 2718, 2719, 2742, 2743, 3294, 3295, 3318, 3319
3870, 3871, 3894, 3895, 4446, 4447, 4470, 4471
**
*MATERIAL, NAME=YU62
*ELASTIC, TYPE=ENGINEERING CONSTANTS
1.724000e+11, 6.900000e+09, 6.900000e+09, 0.25, 0.25, 0.25, 3.450000e+09, 3.450000e+09,
1.380000e+09
*DENSITY
1600,
*ORIENTATION, NAME=OR1, SYSTEM=RECTANGULAR
1.0, 0.0, 0.0, 0.0, 1.0, 0.0
3, 90
*SOLID SECTION, ELSET=PLY1, MATERIAL=YU62, ORIENTATION=OR1
*ORIENTATION, NAME=OR2, SYSTEM=RECTANGULAR
1.0, 0.0, 0.0, 0.0, 1.0, 0.0
3, 0
*SOLID SECTION, ELSET=PLY2, MATERIAL=YU62, ORIENTATION=OR2
**
*BOUNDARY
NBC3D, 1, 3
NCD3D, 1, 3
**
*AMPLITUDE, NAME=TRI
0., 0., 0.001, 1., 0.002, 0., 1., 0.
**
*STEP, NAME=IMPULSE, INC=2000
*DYNAMIC
0.0001, 0.05, 1e-08, 0.0001
*CLOAD, AMPLITUDE=TRI
2501, 3, -10000
*OUTPUT, FIELD, FREQUENCY=50
*ELEMENT OUTPUT
S
*NODE OUTPUT
U
*NODE PRINT, NSET=NM3D, FREQUENCY=1
U
*NODE PRINT, NSET=NA3D, FREQUENCY=1
U
*EL PRINT, ELSET=COLM3D, POSITION=CENTROIDAL, FREQUENCY=96
S
*EL PRINT, ELSET=COLQ3D, POSITION=CENTROIDAL, FREQUENCY=96
S
*END STEP
