*HEADING
3-D FEA benchmark from layup_db.yaml -- ply-by-ply C3D20
*NODE
1, 0.00000000, 0.00000000, -0.07620000
2, 0.03810000, 0.00000000, -0.07620000
3, 0.07620000, 0.00000000, -0.07620000
4, 0.11430000, 0.00000000, -0.07620000
5, 0.15240000, 0.00000000, -0.07620000
6, 0.19050000, 0.00000000, -0.07620000
7, 0.22860000, 0.00000000, -0.07620000
8, 0.26670000, 0.00000000, -0.07620000
9, 0.30480000, 0.00000000, -0.07620000
10, 0.34290000, 0.00000000, -0.07620000
11, 0.38100000, 0.00000000, -0.07620000
12, 0.41910000, 0.00000000, -0.07620000
13, 0.45720000, 0.00000000, -0.07620000
14, 0.49530000, 0.00000000, -0.07620000
15, 0.53340000, 0.00000000, -0.07620000
16, 0.57150000, 0.00000000, -0.07620000
17, 0.60960000, 0.00000000, -0.07620000
18, 0.64770000, 0.00000000, -0.07620000
19, 0.68580000, 0.00000000, -0.07620000
20, 0.72390000, 0.00000000, -0.07620000
** ... 28813 like lines cut
*ELEMENT, TYPE=C3D20, ELSET=EALL
1, 1, 3, 65, 63, 1723, 1725, 1787, 1785, 2, 43, 64, 42, 1724, 1765, 1786,
1764, 1282, 1283, 1304, 1303
2, 3, 5, 67, 65, 1725, 1727, 1789, 1787, 4, 44, 66, 43, 1726, 1766, 1788,
1765, 1283, 1284, 1305, 1304
3, 5, 7, 69, 67, 1727, 1729, 1791, 1789, 6, 45, 68, 44, 1728, 1767, 1790,
1766, 1284, 1285, 1306, 1305
4, 7, 9, 71, 69, 1729, 1731, 1793, 1791, 8, 46, 70, 45, 1730, 1768, 1792,
1767, 1285, 1286, 1307, 1306
5, 9, 11, 73, 71, 1731, 1733, 1795, 1793, 10, 47, 72, 46, 1732, 1769, 1794,
1768, 1286, 1287, 1308, 1307
6, 11, 13, 75, 73, 1733, 1735, 1797, 1795, 12, 48, 74, 47, 1734, 1770, 1796,
1769, 1287, 1288, 1309, 1308
7, 13, 15, 77, 75, 1735, 1737, 1799, 1797, 14, 49, 76, 48, 1736, 1771, 1798,
1770, 1288, 1289, 1310, 1309
8, 15, 17, 79, 77, 1737, 1739, 1801, 1799, 16, 50, 78, 49, 1738, 1772, 1800,
1771, 1289, 1290, 1311, 1310
9, 17, 19, 81, 79, 1739, 1741, 1803, 1801, 18, 51, 80, 50, 1740, 1773, 1802,
1772, 1290, 1291, 1312, 1311
10, 19, 21, 83, 81, 1741, 1743, 1805, 1803, 20, 52, 82, 51, 1742, 1774, 1804,
1773, 1291, 1292, 1313, 1312
** ... 12780 like lines cut
*ELSET, ELSET=LAY1, GENERATE
1, 400, 1
*ELSET, ELSET=LAY2, GENERATE
401, 800, 1
*ELSET, ELSET=LAY3, GENERATE
801, 1200, 1
*ELSET, ELSET=LAY4, GENERATE
1201, 1600, 1
*ELSET, ELSET=LAY5, GENERATE
1601, 2000, 1
*ELSET, ELSET=LAY6, GENERATE
2001, 2400, 1
*ELSET, ELSET=LAY7, GENERATE
2401, 2800, 1
*ELSET, ELSET=LAY8, GENERATE
2801, 3200, 1
*ELSET, ELSET=LAY9, GENERATE
3201, 3600, 1
*ELSET, ELSET=LAY10, GENERATE
3601, 4000, 1
*ELSET, ELSET=LAY11, GENERATE
4001, 4400, 1
*ELSET, ELSET=LAY12, GENERATE
4401, 4800, 1
*ELSET, ELSET=LAY13, GENERATE
4801, 5200, 1
*ELSET, ELSET=LAY14, GENERATE
5201, 5600, 1
*ELSET, ELSET=LAY15, GENERATE
5601, 6000, 1
*ELSET, ELSET=LAY16, GENERATE
6001, 6400, 1
*NSET, NSET=FX0
1, 42, 63, 104, 125, 166, 187, 228, 249, 290, 311, 352
373, 414, 435, 476, 497, 538, 559, 600, 621, 662, 683, 724
745, 786, 807, 848, 869, 910, 931, 972, 993, 1034, 1055, 1096
1117, 1158, 1179, 1220, 1241, 1282, 1303, 1324, 1345, 1366, 1387, 1408
1429, 1450, 1471, 1492, 1513, 1534, 1555, 1576, 1597, 1618, 1639, 1660
1681, 1702, 1723, 1764, 1785, 1826, 1847, 1888, 1909, 1950, 1971, 2012
2033, 2074, 2095, 2136, 2157, 2198, 2219, 2260, 2281, 2322, 2343, 2384
2405, 2446, 2467, 2508, 2529, 2570, 2591, 2632, 2653, 2694, 2715, 2756
2777, 2818, 2839, 2880, 2901, 2942, 2963, 3004, 3025, 3046, 3067, 3088
3109, 3130, 3151, 3172, 3193, 3214, 3235, 3256, 3277, 3298, 3319, 3340
3361, 3382, 3403, 3424, 3445, 3486, 3507, 3548, 3569, 3610, 3631, 3672
3693, 3734, 3755, 3796, 3817, 3858, 3879, 3920, 3941, 3982, 4003, 4044
4065, 4106, 4127, 4168, 4189, 4230, 4251, 4292, 4313, 4354, 4375, 4416
4437, 4478, 4499, 4540, 4561, 4602, 4623, 4664, 4685, 4726, 4747, 4768
4789, 4810, 4831, 4852, 4873, 4894, 4915, 4936, 4957, 4978, 4999, 5020
5041, 5062, 5083, 5104, 5125, 5146, 5167, 5208, 5229, 5270, 5291, 5332
5353, 5394, 5415, 5456, 5477, 5518, 5539, 5580, 5601, 5642, 5663, 5704
5725, 5766, 5787, 5828, 5849, 5890, 5911, 5952, 5973, 6014, 6035, 6076
6097, 6138, 6159, 6200, 6221, 6262, 6283, 6324, 6345, 6386, 6407, 6448
6469, 6490, 6511, 6532, 6553, 6574, 6595, 6616, 6637, 6658, 6679, 6700
** ... 67 like lines cut
*NSET, NSET=FXA
41, 62, 103, 124, 165, 186, 227, 248, 289, 310, 351, 372
413, 434, 475, 496, 537, 558, 599, 620, 661, 682, 723, 744
785, 806, 847, 868, 909, 930, 971, 992, 1033, 1054, 1095, 1116
1157, 1178, 1219, 1240, 1281, 1302, 1323, 1344, 1365, 1386, 1407, 1428
1449, 1470, 1491, 1512, 1533, 1554, 1575, 1596, 1617, 1638, 1659, 1680
1701, 1722, 1763, 1784, 1825, 1846, 1887, 1908, 1949, 1970, 2011, 2032
2073, 2094, 2135, 2156, 2197, 2218, 2259, 2280, 2321, 2342, 2383, 2404
2445, 2466, 2507, 2528, 2569, 2590, 2631, 2652, 2693, 2714, 2755, 2776
2817, 2838, 2879, 2900, 2941, 2962, 3003, 3024, 3045, 3066, 3087, 3108
3129, 3150, 3171, 3192, 3213, 3234, 3255, 3276, 3297, 3318, 3339, 3360
3381, 3402, 3423, 3444, 3485, 3506, 3547, 3568, 3609, 3630, 3671, 3692
3733, 3754, 3795, 3816, 3857, 3878, 3919, 3940, 3981, 4002, 4043, 4064
4105, 4126, 4167, 4188, 4229, 4250, 4291, 4312, 4353, 4374, 4415, 4436
4477, 4498, 4539, 4560, 4601, 4622, 4663, 4684, 4725, 4746, 4767, 4788
4809, 4830, 4851, 4872, 4893, 4914, 4935, 4956, 4977, 4998, 5019, 5040
5061, 5082, 5103, 5124, 5145, 5166, 5207, 5228, 5269, 5290, 5331, 5352
5393, 5414, 5455, 5476, 5517, 5538, 5579, 5600, 5641, 5662, 5703, 5724
5765, 5786, 5827, 5848, 5889, 5910, 5951, 5972, 6013, 6034, 6075, 6096
6137, 6158, 6199, 6220, 6261, 6282, 6323, 6344, 6385, 6406, 6447, 6468
6489, 6510, 6531, 6552, 6573, 6594, 6615, 6636, 6657, 6678, 6699, 6720
** ... 67 like lines cut
*NSET, NSET=FY0
1, 2, 3, 4, 5, 6, 7, 8, 9, 10, 11, 12
13, 14, 15, 16, 17, 18, 19, 20, 21, 22, 23, 24
25, 26, 27, 28, 29, 30, 31, 32, 33, 34, 35, 36
37, 38, 39, 40, 41, 1282, 1283, 1284, 1285, 1286, 1287, 1288
1289, 1290, 1291, 1292, 1293, 1294, 1295, 1296, 1297, 1298, 1299, 1300
1301, 1302, 1723, 1724, 1725, 1726, 1727, 1728, 1729, 1730, 1731, 1732
1733, 1734, 1735, 1736, 1737, 1738, 1739, 1740, 1741, 1742, 1743, 1744
1745, 1746, 1747, 1748, 1749, 1750, 1751, 1752, 1753, 1754, 1755, 1756
1757, 1758, 1759, 1760, 1761, 1762, 1763, 3004, 3005, 3006, 3007, 3008
3009, 3010, 3011, 3012, 3013, 3014, 3015, 3016, 3017, 3018, 3019, 3020
3021, 3022, 3023, 3024, 3445, 3446, 3447, 3448, 3449, 3450, 3451, 3452
3453, 3454, 3455, 3456, 3457, 3458, 3459, 3460, 3461, 3462, 3463, 3464
3465, 3466, 3467, 3468, 3469, 3470, 3471, 3472, 3473, 3474, 3475, 3476
3477, 3478, 3479, 3480, 3481, 3482, 3483, 3484, 3485, 4726, 4727, 4728
4729, 4730, 4731, 4732, 4733, 4734, 4735, 4736, 4737, 4738, 4739, 4740
4741, 4742, 4743, 4744, 4745, 4746, 5167, 5168, 5169, 5170, 5171, 5172
5173, 5174, 5175, 5176, 5177, 5178, 5179, 5180, 5181, 5182, 5183, 5184
5185, 5186, 5187, 5188, 5189, 5190, 5191, 5192, 5193, 5194, 5195, 5196
5197, 5198, 5199, 5200, 5201, 5202, 5203, 5204, 5205, 5206, 5207, 6448
6449, 6450, 6451, 6452, 6453, 6454, 6455, 6456, 6457, 6458, 6459, 6460
** ... 67 like lines cut
*NSET, NSET=FYB
1241, 1242, 1243, 1244, 1245, 1246, 1247, 1248, 1249, 1250, 1251, 1252
1253, 1254, 1255, 1256, 1257, 1258, 1259, 1260, 1261, 1262, 1263, 1264
1265, 1266, 1267, 1268, 1269, 1270, 1271, 1272, 1273, 1274, 1275, 1276
1277, 1278, 1279, 1280, 1281, 1702, 1703, 1704, 1705, 1706, 1707, 1708
1709, 1710, 1711, 1712, 1713, 1714, 1715, 1716, 1717, 1718, 1719, 1720
1721, 1722, 2963, 2964, 2965, 2966, 2967, 2968, 2969, 2970, 2971, 2972
2973, 2974, 2975, 2976, 2977, 2978, 2979, 2980, 2981, 2982, 2983, 2984
2985, 2986, 2987, 2988, 2989, 2990, 2991, 2992, 2993, 2994, 2995, 2996
2997, 2998, 2999, 3000, 3001, 3002, 3003, 3424, 3425, 3426, 3427, 3428
3429, 3430, 3431, 3432, 3433, 3434, 3435, 3436, 3437, 3438, 3439, 3440
3441, 3442, 3443, 3444, 4685, 4686, 4687, 4688, 4689, 4690, 4691, 4692
4693, 4694, 4695, 4696, 4697, 4698, 4699, 4700, 4701, 4702, 4703, 4704
4705, 4706, 4707, 4708, 4709, 4710, 4711, 4712, 4713, 4714, 4715, 4716
4717, 4718, 4719, 4720, 4721, 4722, 4723, 4724, 4725, 5146, 5147, 5148
5149, 5150, 5151, 5152, 5153, 5154, 5155, 5156, 5157, 5158, 5159, 5160
5161, 5162, 5163, 5164, 5165, 5166, 6407, 6408, 6409, 6410, 6411, 6412
6413, 6414, 6415, 6416, 6417, 6418, 6419, 6420, 6421, 6422, 6423, 6424
6425, 6426, 6427, 6428, 6429, 6430, 6431, 6432, 6433, 6434, 6435, 6436
6437, 6438, 6439, 6440, 6441, 6442, 6443, 6444, 6445, 6446, 6447, 6868
6869, 6870, 6871, 6872, 6873, 6874, 6875, 6876, 6877, 6878, 6879, 6880
** ... 67 like lines cut
** NTOP3D -- the ONE deflection probe of this deck:
**   centre of the TOP surface, x = 0.762000  y = 0.762000  z = +0.076200 m
**   (Nayak's station: the loaded face.  z is measured from the
**    plate mid-plane, so the top face is at +h/2 = +0.076200 m.)
**   The shell's counterpart is NOT its node -- it must be
**   dehomogenized to this same z from its PATCHC resultants.
*NSET, NSET=NTOP3D
28193
** ETOPC -- the 4 top-layer elements meeting at NTOP3D; stresses are
**   extrapolated to nodes so the centre node is read at z = +h/2.
**   At that point sigma33 must equal MINUS the applied pressure
**   (-6.894760e+07 Pa): a traction boundary condition, hence an exact check.
*ELSET, ELSET=ETOPC
6190, 6191, 6210, 6211
*MATERIAL, NAME=GE
*ELASTIC, TYPE=ENGINEERING CONSTANTS
1.280000e+11, 1.100000e+10, 1.100000e+10, 0.25, 0.25, 0.25, 4.480000e+09, 4.480000e+09,
1.530000e+09
*DENSITY
1500,
*MATERIAL, NAME=HEREX
*ELASTIC, TYPE=ENGINEERING CONSTANTS
1.036300e+08, 1.036300e+08, 1.036300e+08, 0.32, 0.32, 0.32, 5.000000e+07, 5.000000e+07,
5.000000e+07
*DENSITY
130,
*ORIENTATION, NAME=OR1, SYSTEM=RECTANGULAR
1.0, 0.0, 0.0, 0.0, 1.0, 0.0
3, 0
*SOLID SECTION, ELSET=LAY1, MATERIAL=GE, ORIENTATION=OR1
,
*ORIENTATION, NAME=OR2, SYSTEM=RECTANGULAR
1.0, 0.0, 0.0, 0.0, 1.0, 0.0
3, 90
*SOLID SECTION, ELSET=LAY2, MATERIAL=GE, ORIENTATION=OR2
,
*ORIENTATION, NAME=OR3, SYSTEM=RECTANGULAR
1.0, 0.0, 0.0, 0.0, 1.0, 0.0
3, 0
*SOLID SECTION, ELSET=LAY3, MATERIAL=GE, ORIENTATION=OR3
,
*ORIENTATION, NAME=OR4, SYSTEM=RECTANGULAR
1.0, 0.0, 0.0, 0.0, 1.0, 0.0
3, 90
*SOLID SECTION, ELSET=LAY4, MATERIAL=GE, ORIENTATION=OR4
,
*ORIENTATION, NAME=OR5, SYSTEM=RECTANGULAR
1.0, 0.0, 0.0, 0.0, 1.0, 0.0
3, 0
*SOLID SECTION, ELSET=LAY5, MATERIAL=HEREX, ORIENTATION=OR5
,
*ORIENTATION, NAME=OR6, SYSTEM=RECTANGULAR
1.0, 0.0, 0.0, 0.0, 1.0, 0.0
3, 0
*SOLID SECTION, ELSET=LAY6, MATERIAL=HEREX, ORIENTATION=OR6
,
*ORIENTATION, NAME=OR7, SYSTEM=RECTANGULAR
1.0, 0.0, 0.0, 0.0, 1.0, 0.0
3, 0
*SOLID SECTION, ELSET=LAY7, MATERIAL=HEREX, ORIENTATION=OR7
,
*ORIENTATION, NAME=OR8, SYSTEM=RECTANGULAR
1.0, 0.0, 0.0, 0.0, 1.0, 0.0
3, 0
*SOLID SECTION, ELSET=LAY8, MATERIAL=HEREX, ORIENTATION=OR8
,
*ORIENTATION, NAME=OR9, SYSTEM=RECTANGULAR
1.0, 0.0, 0.0, 0.0, 1.0, 0.0
3, 0
*SOLID SECTION, ELSET=LAY9, MATERIAL=HEREX, ORIENTATION=OR9
,
*ORIENTATION, NAME=OR10, SYSTEM=RECTANGULAR
1.0, 0.0, 0.0, 0.0, 1.0, 0.0
3, 0
*SOLID SECTION, ELSET=LAY10, MATERIAL=HEREX, ORIENTATION=OR10
,
*ORIENTATION, NAME=OR11, SYSTEM=RECTANGULAR
1.0, 0.0, 0.0, 0.0, 1.0, 0.0
3, 0
*SOLID SECTION, ELSET=LAY11, MATERIAL=HEREX, ORIENTATION=OR11
,
*ORIENTATION, NAME=OR12, SYSTEM=RECTANGULAR
1.0, 0.0, 0.0, 0.0, 1.0, 0.0
3, 0
*SOLID SECTION, ELSET=LAY12, MATERIAL=HEREX, ORIENTATION=OR12
,
*ORIENTATION, NAME=OR13, SYSTEM=RECTANGULAR
1.0, 0.0, 0.0, 0.0, 1.0, 0.0
3, 90
*SOLID SECTION, ELSET=LAY13, MATERIAL=GE, ORIENTATION=OR13
,
*ORIENTATION, NAME=OR14, SYSTEM=RECTANGULAR
1.0, 0.0, 0.0, 0.0, 1.0, 0.0
3, 0
*SOLID SECTION, ELSET=LAY14, MATERIAL=GE, ORIENTATION=OR14
,
*ORIENTATION, NAME=OR15, SYSTEM=RECTANGULAR
1.0, 0.0, 0.0, 0.0, 1.0, 0.0
3, 90
*SOLID SECTION, ELSET=LAY15, MATERIAL=GE, ORIENTATION=OR15
,
*ORIENTATION, NAME=OR16, SYSTEM=RECTANGULAR
1.0, 0.0, 0.0, 0.0, 1.0, 0.0
3, 0
*SOLID SECTION, ELSET=LAY16, MATERIAL=GE, ORIENTATION=OR16
,
** SS-1 on the side FACES; solids have no rotational dof, so there
** is no drilling constraint and no edge-rotation choice to make
*BOUNDARY
FX0, 2, 3
FXA, 2, 3
FY0, 1, 1
FYB, 1, 1
FY0, 3, 3
FYB, 3, 3
*STEP, NAME=PULSE, INC=800
*DYNAMIC, DIRECT
5e-05, 0.02
*DLOAD
6001, P2, 4.244297e+05
6002, P2, 1.262838e+06
6003, P2, 2.070151e+06
6004, P2, 2.826491e+06
6005, P2, 3.513232e+06
6006, P2, 4.113467e+06
6007, P2, 4.612414e+06
6008, P2, 4.997788e+06
6009, P2, 5.260100e+06
6010, P2, 5.392890e+06
6011, P2, 5.392890e+06
6012, P2, 5.260100e+06
6013, P2, 4.997788e+06
6014, P2, 4.612414e+06
6015, P2, 4.113467e+06
6016, P2, 3.513232e+06
6017, P2, 2.826491e+06
6018, P2, 2.070151e+06
6019, P2, 1.262838e+06
6020, P2, 4.244297e+05
** ... 380 like lines cut
*NODE PRINT, NSET=NTOP3D, FREQUENCY=1
U
*EL PRINT, ELSET=ETOPC, POSITION=NODES, FREQUENCY=1
S,
*END STEP
